! PM3 Opt
%geom Scan
B 5 0 = 3.0, 1.2, 15 # Scanning the distance between atom 5 and atom 0 from distance 3.0 Å to 1.2 Å in 15 points.
end
end

*xyz -1 1
C         -1.55384       -0.43723        0.00000
Cl        -0.48384       -0.43723        0.00000
H         -1.91051       -1.20940        0.64919
H         -1.91051       -0.61336       -0.99331
H         -1.91051        0.51106        0.34413
F         -4.54939       -0.44897        0.08390
*