%pal nprocs 8 end
!B3LYP def2-TZVP RIJCOSX

%tddft
orbwin[0] = 7,24,-1,-1		# donor orbital range : 0 to 0
				# (C 1s orbital only) 
                     		# acceptor orbital range: -1 to -1
				# (meaning all virtual orbitals)

doquad true 			# Calculate quadrupole contributions.

nroots 50 			# Setting the number of roots (transitions)
				# to be calculated.

maxdim 300 			# Setting the maximum dimension of the expansion space.
				# Should be 5-10 times the no. of nroots for
				# favorable convergence.
MaxCore 1024
end


%output
Print[P_MOs] 1
Print[P_Basis] 2
end
*xyzfile 0 1 FOYNIQdb.xyz
